myETL/UCT_Source/20221102_1230_FO3_BA0.UCT
##C 2007.05.01
*******************************************************
	Created by Transmission Network Analyzer_FORsee (TNA_FORsee). Made by EKC Belgrade & DMS Group Novi Sad, 2012.
	300  nodes
	354  lines
	29  transformers
	29  transformer regulations
	0  tap changers
*******************************************************

##N
##ZBA
WNEUM 5  WNEUM 5      0 2    118       0       0    1.62       0       5       0       5      -5     0       0       0       0 H
WTESAN5  WTESAN5      0 0 113.58 20.2272 7.49974       0       0       0       0       0       0     0       0       0       0  
WMAGLA5  WMAGLJ5      0 0 114.15 11.2549 4.16535       0       0       0       0       0       0     0       0       0       0  
WGACKO51 WGACKO51     0 0 117.61 5.05943 3.16609       0       0       0       0       0       0     0       0       0       0  
WTESLI5  WTESLC5      0 0 114.94 6.72137 .031556       0       0       0       0       0       0     0       0       0       0  
WZAVID5  WZAVID5      0 0 114.82  16.125 4.54402       0       0       0       0       0       0     0       0       0       0  
WTSTAN51 WTSTAN51     0 0  115.2 1.46208 .042074       0       0       0       0       0       0     0       0       0       0  
WDOBO15  TS_Doboj_1   0 0 114.74 11.2864 1.97749       0       0       0       0       0       0     0       0       0       0  
WDOBO25  TS_Doboj_2   0 0 114.79 8.74093 .862523       0       0       0       0       0       0     0       0       0       0  
WBILEC5  WBILEC5      0 0 118.06 2.22994 1.66193       0       0       0       0       0       0     0       0       0       0  
WPRNJ15  WPRNJV5      0 0  115.3 9.16168 2.13527       0       0       0       0       0       0     0       0       0       0  
WGRACA5  WGRACA5      0 0 114.99       0     4.8       0       0       0       0       0       0     0       0       0       0  
WUKRIN5  WUKRNA5      0 0 115.43 1.33586 .536447       0       0       0       0       0       0     0       0       0       0  
WDOBO35  WDO 3 5      0 0 115.04 3.10298 .347113       0       0       0       0       0       0     0       0       0       0  
WSIPOV5  WSIPOV5      0 0  115.9  3.6815 1.77764       0       0       0       0       0       0     0       0       0       0  
WKVARO5  WK VAR5      0 0 115.87 9.71916 2.71379       0       0       0       0       0       0     0       0       0       0  
WTSBJE5  WBJLJC5      0 0    116   24.67   12.41       0       0       0       0       0       0     0       0       0       0  
WTREB15  WTSTRB5      0 0 118.64 5.36447 1.19912       0       0       0       0       0       0     0       0       0       0  
WSRBAC5  WSRBAC5      0 0 115.78 11.4968 4.42832       0       0       0       0       0       0     0       0       0       0  
WMGRAD5  WMGRAD5      0 0 116.12 7.65752 3.16609       0       0       0       0       0       0     0       0       0       0  
WKUPRE5  WKUPRE5      0 0 116.71 1.06238       0       0       0       0       0       0       0     0       0       0       0  
WBUGOJ5  WBUGOJ5      0 0 116.69 9.60346 1.91438       0       0       0       0       0       0     0       0       0       0  
WDERVE51 WDERVE51     0 0 115.49 11.3285 1.83023       0       0       0       0       0       0     0       0       0       0  
WCELIN5  WCELIN5      0 0 116.36 4.39676 1.29378       0       0       0       0       0       0     0       0       0       0  
WTOPOL5  WTOPOL5      0 0 116.33 7.58389  2.3246       0       0       0       0       0       0     0       0       0       0  
WHJAJ151 WHEJC151     0 0 116.55       0       0       0       0       0     -60      20     -72     0       0       0       0 H
WJAJC15  WTSJC15      0 0 116.74 18.4285 10.6553       0       0       0       0       0       0     0       0       0       0  
WTREBI5  WTREBI5      0 0 118.93 5.75366 .830967       0       0       0       0       0       0     0       0       0       0  
WSR-IK5  WSRNIK5      0 0 115.41 8.61471 2.92416       0       0       0       0       0       0     0       0       0       0  
WLAKT25  WLAKT25      0 0 116.52 3.99706 .936153       0       0       0       0       0       0     0       0       0       0  
WSAMAC5  WSAMAC5      0 0 115.84       0       0       0       0       0       0       0       0     0       0       0       0  
WLAKTA5  WLAKTA5      0 0 116.59 12.8011       0       0       0       0       0       0       0     0       0       0       0  
WJAJC251 WJAJC251     0 0 116.79 .305039 0.22089       0       0       0       0       0       0     0       0       0       0  
WBRCK251 WBRCK251     0 0 115.33 17.7659 3.59735       0       0       0       0       0       0     0       0       0       0  
WBRCK15  WBRCK15      0 0 115.16 24.2138  6.4584       0       0       0       0       0       0     0       0       0       0  
WTRAV25  WTRAV25      0 0 116.95 6.75292 1.91438       0       0       0       0       0       0     0       0       0       0  
WTRAV15  WTRAV15      0 0 117.04 14.0318 4.22847       0       0       0       0       0       0     0       0       0       0  
WSTOLA5  WSTOLC5      0 0 117.08 7.28937 0.44178       0       0       0       0       0       0     0       0       0       0  
WODZAK5  WODZAK5      0 0 116.06 6.47944 2.16683       0       0       0       0       0       0     0       0       0       0  
WGRDS15  WGRDIS5      0 0 116.64 11.5389 1.97749       0       0       0       0       0       0     0       0       0       0  
WBLUK75  WBL 7 5      0 0 116.67 9.47723 1.54623       0       0       0       0       0       0     0       0       0       0  
WNTRAV5  WNTRAV5      0 0 117.31 5.53277 .031556       0       0       0       0       0       0     0       0       0       0  
WCAPLJ5  WCAPLJ5      0 0 117.41    5.74    1.25       0       0       0       0       0       0     0       0       0       0  
WHBOCA5  WBOCAC5      0 0 116.67       0       0       0       0       0    -114       0     -50     0       0       0       0 H
WBLUK85  WBL 8 5      0 0 116.83       0       0       0       0       0       0       0       0     0       0       0       0  
WBLUK25  WBL 2 5      0 0 116.78  30.325 6.88967       0       0       0       0       0       0     0       0       0       0  
WVITEZ5  WVITEZ5      0 0 117.45 11.8439  2.7769       0       0       0       0       0       0     0       0       0       0  
WMODRI5  WMODRC5      0 0 116.31 9.96109 3.60787       0       0       0       0       0       0     0       0       0       0  
WKTDOI5  WKTDOI5      0 0 114.74       0       0       0       0       0       0       0       0     0       0       0       0  
WBLUK55  WBL 5 5      0 0 116.82 6.59514 1.73556       0       0       0       0       0       0     0       0       0       0  
WLUKA151 WLUKAV51     0 0 116.04 30.1357 9.09856       0       0       0       0       0       0     0       0       0       0  
WHMLIN5  WHEMLN5      0 0  116.8       0       0       0       0       0     -30      20     -22     0       0       0       0 H
WGRUDE5  WGRUDE5      0 0 116.97 2.97676 .915116       0       0       0       0       0       0     0       0       0       0  
WBLUK151 WBL 1 51     0 0 117.08 17.5765 4.85958       0       0       0       0       0       0     0       0       0       0  
WSR-CA5  WSREBC5      0 0 115.41   7.931 .599559       0       0       0       0       0       0     0       0       0       0  
WLJUBU51 WLUBUS51     0 0 117.66 3.03987 .483854       0       0       0       0       0       0     0       0       0       0  
WGRADA51 WGRADC51     0 0 116.86  9.5719 3.90239       0       0       0       0       0       0     0       0       0       0  
WBJEL35  WBJEL35      0 0 116.48 16.0093 2.24046       0       0       0       0       0       0     0       0       0       0  
WBBROD51 WBBROD51     0 0 115.35 5.83781 .273483       0       0       0       0       0       0     0       0       0       0  
WGLINI5  WGLINI5      0 0 115.45   13.59 10.0768       0       0       0       0       0       0     0       0       0       0  
WBJEL15  WBJEL15      0 0 116.69 14.1264 3.89187       0       0       0       0       0       0     0       0       0       0  
WSJEVE5  WZSJEV5      0 0 117.81 29.9359 18.0499       0       0       0       0       0       0     0       0       0       0  
WZENI151 WZE 1 51     0 0 117.83 3.91291 .157779       0       0       0       0       0       0     0       0       0       0  
WVLASE5  WVLASN5      0 0 115.65 10.1715 1.97749       0       0       0       0       0       0     0       0       0       0  
WORASJ5  WORASJ5      0 0 114.86 8.44641 1.89334       0       0       0       0       0       0     0       0       0       0  
WBUSOV5  WBUSOV5      0 0 117.94 4.38624 .904597       0       0       0       0       0       0     0       0       0       0  
WBLUK35  WBL 3 5      0 0 117.59 22.3309 2.88209       0       0       0       0       0       0     0       0       0       0  
WZVORN51 WBIRAC51     0 0 115.55 16.4826 3.01883       0       0       0       0       0       0     0       0       0       0  
WJUG  5  WZJUG 5      0 0 117.82 14.9679 9.03545       0       0       0       0       0       0     0       0       0       0  
WZENI45  WZE 4 5      0 0 117.81 10.4029 1.66193       0       0       0       0       0       0     0       0       0       0  
WBJEL45  WBJEL45      0 0 116.64 3.53424  .51541       0       0       0       0       0       0     0       0       0       0  
WSBRIJ5  WSBRIJ5      0 0 117.41 13.6216 3.12402       0       0       0       0       0       0     0       0       0       0  
WCITL25  WCITL25      0 0  117.8 2.57705       0       0       0       0       0       0       0     0       0       0       0  
WBJEL25  WBJEL25      0 0 117.24 .915116 .031556       0       0       0       0       0       0     0       0       0       0  
WNGRAD5  WNGRAD5      0 0 117.64 10.6764  2.9452       0       0       0       0       0       0     0       0       0       0  
WKLADA5  WKLDNJ5      0 0 116.13 2.34564 1.08341       0       0       0       0       0       0     0       0       0       0  
WCITLU5  WCITLU5      0 0  117.9 8.33071 2.22994       0       0       0       0       0       0     0       0       0       0  
WCEMEN5  WCEMEN5      0 0 119.14 17.4293 5.22773       0       0       0       0       0       0     0       0       0       0  
WBLUK45  WBL 4 5      0 0  118.1  8.6673 .746819       0       0       0       0       0       0     0       0       0       0  
WZENI35  WZE 3 5      0 0 118.48 17.7448 1.26223       0       0       0       0       0       0     0       0       0       0  
WZENI251 WZE 2 51     0 0 118.52       0       0       0       0       0       0       0       0     0       0       0       0  
WTUZL35  WTUZL35      0 0 117.21 2.60861 .546966       0       0       0       0       0       0     0       0       0       0  
WTUZL551 WTUZ5 51     0 0 116.97 17.7448 4.91217       0       0       0       0       0       0     0       0       0       0  
WTUZLC51 WTUZ C51     0 0 116.98 35.3319 10.3082       0       0       0       0       0       0     0       0       0       0  
WTTUZL51 WTETUZ51     0 0 116.95 23.4038 9.32997       0       0       0    -100      25     -35     0       0       0       0 L
WTKAKA51 WTEKAK51     0 0 119.46 10.3923 5.97455       0       0       0    -220      24    -158     0       0       0       0 L
WHAK  51 WHAK  51     0 0 116.99 1.51467 .094667       0       0       0       0       0       0     0       0       0       0  
WDJURD5  WDJURD5      0 0 116.67 13.4848 5.74314       0       0       0       0       0       0     0       0       0       0  
WVARES5  WVARES5      0 0 119.22 7.16315 .746819       0       0       0       0       0       0     0       0       0       0  
WPOSUS5  WPOSUS5      0 0 116.42 6.57411 .925634       0       0       0       0       0       0     0       0       0       0  
WDUBIC5  WDUBIC5      0 0 117.77 13.7583  4.1338       0       0       0       0       0       0     0       0       0       0  
WDOBRI5  WDBRNJ5      0 0 119.44       0       0       0       0       0       0       0       0     0       0       0       0  
WBANOV5  WBANOV5      0 0 116.85 11.6546 4.21795       0       0       0       0       0       0     0       0       0       0  
WVISOK5  WVISOK5      0 0 119.39 16.6193 5.55381       0       0       0       0       0       0     0       0       0       0  
WFOJNI5  WFOJNI5      0 0 119.24 4.21795 1.22015       0       0       0       0       0       0     0       0       0       0  
WBREZA5  WBREZA5      0 0 119.66  14.421 4.64921       0       0       0       0       0       0     0       0       0       0  
WLOPAR5  WLOPAR5      0 0 118.08 4.59662 1.86179       0       0       0       0       0       0     0       0       0       0  
WBLUK651 WBL 6 51     0 0 118.59       0       0       0       0       0       0       0       0     0       0       0       0  
WTUZL451 WTSTUZ51     0 0 117.28       0       0       0       0       0       0       0       0     0       0       0       0  
WTUGLJ51 WUGLJV51     0 0 118.92 8.39382 4.65973       0       0       0       0       0       0     0       0       0       0  
WPRIJ551 WPRIJ551     0 0 117.92 15.1888 10.8972       0       0       0       0       0       0     0       0       0       0  
WPRIJ35  WPRIJ35      0 0 118.05 9.84538 1.68297       0       0       0       0       0       0     0       0       0       0  
WPRIJ15  WPRIJ15      0 0 118.21 13.4322 2.96624       0       0       0       0       0       0     0       0       0       0  
WCELUL5  WCELUL5      0 0 118.21       0       0       0       0       0       0       0       0     0       0       0       0  
WLIVNO51 WLIVNO51     0 0 116.22 9.37205 2.48238       0       0       0       0       0       0     0       0       0       0  
WPRIJ251 WPRIJ251     0 0 118.26       0       0       0       0       0       0       0       0     0       0       0       0  
WMOST75  WMO 7 5      0 0 117.29 9.37205  .51541       0       0       0       0       0       0     0       0       0       0  
WMOST55  WMO 5 5      0 0 117.24 5.16462 1.26223       0       0       0       0       0       0     0       0       0       0  
WMOST451 WMO 4 51     0 0  118.3 .262964 .357631       0       0       0       0       0       0     0       0       0       0  
WILIJA5  WILJAS5      0 0 120.03 2.15631       0       0       0       0       0       0       0     0       0       0       0  
WHMBLA5  WHEMBL5      0 0  118.3       0       0       0       0       0     -63       0     -40     0       0       0       0 H
WVRNOG5  WVRNGR5      0 0 114.14 2.55601 .494373       0       0       0       0       0       0     0       0       0       0  
WKLADU5  WVKLAD5      0 0 113.95  5.4381 2.18786       0       0       0       0       0       0     0       0       0       0  
WMOST65  WMO 6 5      0 0 117.38 9.91901       0       0       0       0       0       0       0     0       0       0       0  
WBUZIM5  WBUZIM5      0 0 114.35 4.15484 .746819       0       0       0       0       0       0     0       0       0       0  
WSAR185  WSA18 5      0 0 120.61 6.73189 1.23067       0       0       0       0       0       0     0       0       0       0  
WNEVES5  WNEVES5      0 0 117.61       0       0       0       0       0       0       0       0     0       0       0       0  
WBKRUP5  WKRUPA5      0 0 114.87   7.647 2.14579       0       0       0       0       0       0     0       0       0       0  
WKISEL5  WKISEL5      0 0 120.62 11.8649  3.1135       0       0       0       0       0       0     0       0       0       0  
WTGRAD5  WTGRAD5      0 0 116.67 6.65826 1.39897       0       0       0       0       0       0     0       0       0       0  
WSMOST5  WSMOST5      0 0  117.4  9.7402       0       0       0       0       0       0       0     0       0       0       0  
WSARA151 WSA 1 51     0 0 120.44 14.0633 1.68297       0       0       0       0       0       0     0       0       0       0  
WPALE 5  WPALE 5      0 0 119.27  12.738 5.34343       0       0       0       0       0       0     0       0       0       0  
WMOST151 WMO 1 51     0 0 117.57 4.62817 .599559       0       0       0       0       0       0     0       0       0       0  
WEVPBL5  WBLAZU5      0 0 120.39       0       0       0       0       0       0       0       0     0       0       0       0  
WSAR115  WSA11 5      0 0 120.64 14.3999 2.96624       0       0       0       0       0       0     0       0       0       0  
WSARA55  WSA 5 5      0 0 120.63 15.1152  3.0609       0       0       0       0       0       0     0       0       0       0  
WSARA451 WSA 4 51     0 0 120.61 12.2436 4.84906       0       0       0       0       0       0     0       0       0       0  
WMOST251 WMO 2 51     0 0  117.5 12.6118 2.28253       0       0       0       0       0       0     0       0       0       0  
WHMOST51 WHEMOS51     0 2    115       0       0     -11       8     -10     -72      24     -54     0       0       0       0 H
WHADZI5  WHADZC5      0 0 120.15 10.3187 1.44104       0       0       0       0       0       0     0       0       0       0  
WWGBRS5  VE Mesihovin 0 2    116       0       0      -1      16      -1     -51      16     -16     0       0       0       0 W
WSAR135  WSA13 5      0 0 120.66 18.5442 3.19765       0       0       0       0       0       0     0       0       0       0  
WSARA85  WSA 8 5      0 0 121.03  9.8559 1.46208       0       0       0       0       0       0     0       0       0       0  
WSARA75  WSA 7 5      0 0 120.73 16.9559 3.00831       0       0       0       0       0       0     0       0       0       0  
WSARA25  WSA 2 5      0 0 120.65 7.32093 1.10445       0       0       0       0       0       0     0       0       0       0  
WCAZI25  WCAZ2 5      0 0 113.81  2.3246       0       0       0       0       0       0       0     0       0       0       0  
WSOKOL5  WSOKOL5      0 0 119.21 6.23751 2.68224       0       0       0       0       0       0     0       0       0       0  
WSAR145  WSA14 5      0 0 120.78 17.2399 1.73556       0       0       0       0       0       0     0       0       0       0  
WSAR1051 WSA10 51     0 0 121.06       0       0       0       0       0       0       0       0     0       0       0       0  
WPAZAR5  WPAZAR5      0 0 119.97 4.52299 2.36668       0       0       0       0       0       0     0       0       0       0  
WBL5TT5  WKTBL55      0 0 116.84       0       0       0       0       0       0       0       0     0       0       0       0  
WCAZI15  WCAZ1 5      0 0 113.82 13.5584 2.95572       0       0       0       0       0       0     0       0       0       0  
WSAR155  WSA15 5      0 0 120.81 10.5186 1.11497       0       0       0       0       0       0     0       0       0       0  
WSAR2051 WSA20 51     0 0 120.91 14.6103 3.00831       0       0       0       0       0       0     0       0       0       0  
WFOCA 5  WFOCA 5      0 0 117.57 7.22626 .946671       0       0       0       0       0       0     0       0       0       0  
WROGAT5  WROGAT5      0 0 118.58 3.91291 1.88282       0       0       0       0       0       0     0       0       0       0  
WGRZD151 WGORA151     0 0 117.82 17.9026 2.80846       0       0       0       0       0       0     0       0       0       0  
WPRATA5  WPRATC5      0 0 120.89       0       0       0       0       0       0       0       0     0       0       0       0  
WGORA25  WGORA25      0 0 117.89 .852004 .126223       0       0       0       0       0       0     0       0       0       0  
WEVPKO5  WEVPKO5      0 0 119.62 13.3586  3.2292       0       0       0       0       0       0     0       0       0       0  
WVISEG51 WVISEG51     0 0 118.19 4.48091 1.34638       0       0       0       0       0       0     0       0       0       0  
WHRDUB5  WTSDUB5      0 0    118       0       0       0       0       0       0       0       0     0       0       0       0  
WBIHA25  WBIHA25      0 0 114.05 6.10077 9.97161       0       0       0       0       0       0     0       0       0       0  
WRAMA 5  WRAMA 5      0 0 118.98 2.15631 .010519       0       0       0       0       0       0     0       0       0       0  
WKONJI5  WKONJC5      0 0 119.66 13.3481  3.2292       0       0       0       0       0       0     0       0       0       0  
WBIHA151 WBIHA151     0 0 114.14 10.3818 3.71306       0       0       0       0       0       0     0       0       0       0  
WKLJUC5  WKLJUC5      0 0 116.79 3.07142   .7363       0       0       0       0       0       0     0       0       0       0  
WJABLA5  WTSJAB5      0 0 120.17 1.96697 0.36815       0       0       0       0       0       0     0       0       0       0  
WHJABL51 WHEJAB51     0 2    116 2.46135 .189334    -105      0.     -72    -180       0    -117     0       0       0       0 H
WPETRO5  WBPETR5      0 0 115.92 3.47113 .105186       0       0       0       0       0       0     0       0       0       0  
WKVAKU5  WK VAK5      0 0 115.24       0       0       0       0       0       0       0       0     0       0       0       0  
WDRVAR5  WDRVAR5      0 0 115.98 1.27275 .231409       0       0       0       0       0       0     0       0       0       0  
WEVPLP5  WEVDLP5      0 0 116.02       0       0       0       0       0       0       0       0     0       0       0       0  
WGRAHO5  WGRAHO5      0 0 116.03 .063111 .305039       0       0       0       0       0       0     0       0       0       0  
WGVAKU5  WUSKOP5      0 0 116.49 6.06922 1.50416       0       0       0       0       0       0     0       0       0       0  
WDVAKU5  WD VAK5      0 0 116.69 3.08194 .199853       0       0       0       0       0       0     0       0       0       0  
WBLUK611 WBLUKA11     0 0 421.56       0       0       0       0       0       0       0       0     0       0       0       0  
WBLUK612 WBLUKA12     0 0    400       0       0       0       0       0       0       0       0     0       0       0       0  
WTGACK11 WGACKO11     0 3    430       0       0 -196.89 -93.704    -180    -276      55    -179     0       0       0       0 L
WTGACK12 WGACKO12     0 0    400       0       0       0       0       0       0       0       0     0       0       0       0  
WHVSGR11 WHEVIS11     0 0 422.24       0       0       0       0       0    -315      21    -150     0       0       0       0 H
WHVSGR12 WHEVIS12     0 0    400       0       0       0       0       0       0       0       0     0       0       0       0  
WMOST411 WMOST411     0 0  425.9       0       0       0       0       0       0       0       0     0       0       0       0  
WMOST412 WMOST412     0 0    400       0       0       0       0       0       0       0       0     0       0       0       0  
WSAR1011 WSAR1011     0 0 424.51       0       0       0       0       0       0       0       0     0       0       0       0  
WSAR1012 WSAR1012     0 0 424.51       0       0       0       0       0       0       0       0     0       0       0       0  
WSAR2011 WSAR2011     0 0 424.28       0       0       0       0       0       0       0       0     0       0       0       0  
WSAR2012 WSAR2012     0 0    400       0       0       0       0       0       0       0       0     0       0       0       0  
WTREBI11 WTREBI11     0 0 426.52       0       0       0       0       0       0       0       0     0       0       0       0  
WTREBI12 WTREBI12     0 0    400       0       0       0       0       0       0       0       0     0       0       0       0  
WTSTAN11 WTSTAN11     0 2    424       0       0    -267 8.11174    -130    -299      55    -180     0       0       0       0 L
WTSTAN12 WTSTAN12     0 0    400       0       0       0       0       0       0       0       0     0       0       0       0  
WVISEG11 WTSVSG11     0 0 422.24       0       0       0       0       0       0       0       0     0       0       0       0  
WVISEG12 WTSVSG12     0 0    400       0       0       0       0       0       0       0       0     0       0       0       0  
WTUZL411 WTUZLA11     0 0 423.25       0       0       0       0       0       0       0       0     0       0       0       0  
WTUZL412 WTUZLA12     0 0    400       0       0       0       0       0       0       0       0     0       0       0       0  
WTUGLJ11 WUGLJE11     0 0 420.11       0       0       0       0       0    -279      55    -175     0       0       0       0 L
WTUGLJ12 WUGLJE12     0 0    400       0       0       0       0       0       0       0       0     0       0       0       0  
WBIHA12  WBIHAC2      0 0 242.85       0       0       0       0       0       0       0       0     0       0       0       0  
WEALMO2  WEALMO2      0 0    245    0.85    1.48       0       0       0       0       0       0     0       0       0       0  
WHGRAB2  WGRABO2      0 0 245.15       0       0       0       0       0    -114       0     -56     0       0       0       0 H
WGRADA2  WGRADC2      0 0 240.92       0       0       0       0       0       0       0       0     0       0       0       0  
WHCAPL2  WHECAP2      0 0 245.13       0       0       0       0       0    -440      50    -252     0       0       0       0 H
WHEDUB2  WHEDUB2      0 2    240       0       0     -97       0     -55    -126       0    -100     0       0       0       0 H
WHTREB2  WHETRE2      0 2    242       0       0     -46       0     -26    -177       0     -90     0       0       0       0 H
WHRAMA21 WHRAMA21     0 2    242       0       0     -55       0     -55    -180       0     -76     0       0       0       0 H
WHRAMA22 WHRAMA22     0 0    220       0       0       0       0       0       0       0       0     0       0       0       0  
WJAJC22  WJAJCE2      0 0 243.14       0       0       0       0       0       0       0       0     0       0       0       0  
WTKAK721 WKAKA521     0 2    243       0       0    -190 28.6388    -170    -230      50    -142     0       0       0       0 L
WTKAK722 WKAKA522     0 0    220       0       0       0       0       0       0       0       0     0       0       0       0  
WMOST321 WMOST321     0 0 245.01       0       0       0       0       0       0       0       0     0       0       0       0  
WMOST322 WMOST322     0 0    220       0       0       0       0       0       0       0       0     0       0       0       0  
WMOST421 WMOST421     0 0 244.96       0       0       0       0       0       0       0       0     0       0       0       0  
WMOST422 WMOST422     0 0    220       0       0       0       0       0       0       0       0     0       0       0       0  
WPRIJ221 WPRIJE21     0 0 242.87       0       0       0       0       0       0       0       0     0       0       0       0  
WPRIJ222 WPRIJE22     0 0    220       0       0       0       0       0       0       0       0     0       0       0       0  
WRPJAB21 WRPJAB21     0 0 245.14       0       0       0       0       0       0       0       0     0       0       0       0  
WRPJAB22 WRPJAB22     0 0    220       0       0       0       0       0       0       0       0     0       0       0       0  
WRPKAK21 WRPKAK21     0 0 243.41       0       0       0       0       0       0       0       0     0       0       0       0  
WRPKAK22 WRPKAK22     0 0    220       0       0       0       0       0       0       0       0     0       0       0       0  
WHSALA21 WSALAK21     0 0 244.97       0       0       0       0       0    -210       0     -99     0       0       0       0 H
WHSALA22 WSALAK22     0 0    220       0       0       0       0       0       0       0       0     0       0       0       0  
WSAR202  WSAR202      0 0 245.43       0       0       0       0       0       0       0       0     0       0       0       0  
WTKAK52  WTEKAK2      0 0 243.04       0       0       0       0       0       0       0       0     0       0       0       0  
WTTUZL21 WTETUZ21     0 2    245       0       0    -155    -124    -130    -400      30    -248     0       0       0       0 L
WTTUZL22 WTETUZ22     0 0    220       0       0       0       0       0       0       0       0     0       0       0       0  
WTREBI21 WTREBI21     0 0 245.38       0       0       0       0       0       0       0       0     0       0       0       0  
WTREBI22 WTREBI22     0 0    220       0       0       0       0       0       0       0       0     0       0       0       0  
WTUZL421 WTSTUZ21     0 0  243.9       0       0       0       0       0       0       0       0     0       0       0       0  
WTUZL422 WTSTUZ22     0 0    220       0       0       0       0       0       0       0       0     0       0       0       0  
WVISEG2  WTSVSG2      0 0 239.52       0       0       0       0       0       0       0       0     0       0       0       0  
WTTUZ62  WTUZL62      0 2    239       0       0     -65      30     -65    -230      30    -135     0       0       0       0 L
WZENI221 WZENIC21     0 0 241.76       0       0       0       0       0       0       0       0     0       0       0       0  
WZENI222 WZENIC22     0 0    220       0       0       0       0       0       0       0       0     0       0       0       0  
WBIHA152 WBIHA152     0 0    110       0       0       0       0       0       0       0       0     0       0       0       0  
WBLUK152 WBL 1 52     0 0    110       0       0       0       0       0       0       0       0     0       0       0       0  
WBLUK652 WBL 6 52     0 0    110       0       0       0       0       0       0       0       0     0       0       0       0  
WSAR1052 WSA10 52     0 0    110       0       0       0       0       0       0       0       0     0       0       0       0  
WSARA152 WSA 1 52     0 0    110       0       0       0       0       0       0       0       0     0       0       0       0  
WSAR2052 WSA20 52     0 0    110       0       0       0       0       0       0       0       0     0       0       0       0  
WSARA452 WSA 4 52     0 0    110       0       0       0       0       0       0       0       0     0       0       0       0  
WPRIJ552 WPRIJ552     0 0    110       0       0       0       0       0       0       0       0     0       0       0       0  
WPRIJ252 WPRIJ252     0 0    110       0       0       0       0       0       0       0       0     0       0       0       0  
WZENI152 WZE 1 52     0 0    110       0       0       0       0       0       0       0       0     0       0       0       0  
WZENI252 WZE 2 52     0 0    110       0       0       0       0       0       0       0       0     0       0       0       0  
WMOST152 WMO 1 52     0 0    110       0       0       0       0       0       0       0       0     0       0       0       0  
WMOST452 WMO 4 52     0 0    110       0       0       0       0       0       0       0       0     0       0       0       0  
WMOST252 WMO 2 52     0 0    110       0       0       0       0       0       0       0       0     0       0       0       0  
WBBROD52 WBBROD52     0 0    110       0       0       0       0       0       0       0       0     0       0       0       0  
WZVORN52 WBIRAC52     0 0    110       0       0       0       0       0       0       0       0     0       0       0       0  
WBRCK252 WBRCK252     0 0    110       0       0       0       0       0       0       0       0     0       0       0       0  
WDERVE52 WDERVE52     0 0    110       0       0       0       0       0       0       0       0     0       0       0       0  
WGACKO52 WGACKO52     0 0    110       0       0       0       0       0       0       0       0     0       0       0       0  
WGRZD152 WGORA152     0 0    110       0       0       0       0       0       0       0       0     0       0       0       0  
WGRADA52 WGRADC52     0 0    110       0       0       0       0       0       0       0       0     0       0       0       0  
WHJABL52 WHEJAB52     0 0    110       0       0       0       0       0       0       0       0     0       0       0       0  
WHAK  52 WHAK  52     0 0    110       0       0       0       0       0       0       0       0     0       0       0       0  
WHJAJ152 WHEJC152     0 0    110       0       0       0       0       0       0       0       0     0       0       0       0  
WHMOST52 WHEMOS52     0 0    110       0       0       0       0       0       0       0       0     0       0       0       0  
WJAJC252 WJAJC252     0 0    110       0       0       0       0       0       0       0       0     0       0       0       0  
WLIVNO52 WLIVNO52     0 0    110       0       0       0       0       0       0       0       0     0       0       0       0  
WLJUBU52 WLUBUS52     0 0    110       0       0       0       0       0       0       0       0     0       0       0       0  
WLUKA152 WLUKAV52     0 0    110       0       0       0       0       0       0       0       0     0       0       0       0  
WTSTAN52 WSTANR52     0 0    110       0       0       0       0       0       0       0       0     0       0       0       0  
WTTUZL52 WTETUZ52     0 0    110       0       0       0       0       0       0       0       0     0       0       0       0  
WTUZL452 WTSTUZ52     0 0    110       0       0       0       0       0       0       0       0     0       0       0       0  
WTUZLC52 WTUZ C52     0 0    110       0       0       0       0       0       0       0       0     0       0       0       0  
WTUZL552 WTUZ5 52     0 0    110       0       0       0       0       0       0       0       0     0       0       0       0  
WTUGLJ52 WUGLJV52     0 0    110       0       0       0       0       0       0       0       0     0       0       0       0  
WVISEG52 WVISEG52     0 0    110       0       0       0       0       0       0       0       0     0       0       0       0  
WTKAKA52 WTEKAK52     0 0    110       0       0       0       0       0       0       0       0     0       0       0       0  
WGRDTT5  WKTGRD5      0 0 116.63       0       0       0       0       0       0       0       0     0       0       0       0  
WPLJTT5  WKTKPL5      0 0 115.56       0       0       0       0       0       0       0       0     0       0       0       0  
WKTDUB5  WKTDUB5      0 0 118.04       0       0       0       0       0       0       0       0     0       0       0       0  
WPRITT5  WKTPRJ5      0 0 118.28       0       0       0       0       0       0       0       0     0       0       0       0  
WSA5TT5  WKTSA55      0 0 120.44       0       0       0       0       0       0       0       0     0       0       0       0  
WGRDS25  WGRDI25      0 0 117.43       0       0       0       0       0       0       0       0     0       0       0       0  
WSAR125  WSA12 5      0 0  120.7       0       0       0       0       0       0       0       0     0       0       0       0  
WWJELO5  VE Jelovaca  0 2    117       0       0      -1 -3.1484      -1     -36      13     -13     0       0       0       0 W
WDOBIS5  WDO IS5      0 0 114.74       0       0       0       0       0       0       0       0     0       0       0       0  
WWPODV5  VE Podvelezj 0 2    116       0       0      -2      15      -1     -49      15     -15     0       0       0       0 W
##ZXX
XZV_BI51 XZV_BI51     1 0 115.55       0 .128756       0       0       0       0       0       0     0       0       0       0  
XBI_NI51 XBI_NI51     1 0 117.99 -.00012   1.171       0       0       0       0       0       0     0       0       0       0  
XUG_SM11 XUG_SM11     1 0 417.99 -269.53 103.768       0       0       0       0       0       0     0       0       0       0  
XTR_HN51 XTR_HN51     1 0 118.35 20.3781  1.4365       0       0       0       0       0       0     0       0       0       0  
XSA_PI21 XSA_PI21     1 0    246 -62.425 2.37868       0       0       0       0       0       0     0       0       0       0  
XBI_LE51 XBI_LE51     1 0 116.64       0  .23212       0       0       0       0       0       0     0       0       0       0  
XTR_PE21 XTR_PE21     1 0 242.27 .067133 60.0488       0       0       0       0       0       0     0       0       0       0  
XVI_VA21 XVI_VA21     1 0 238.64 -.21117 53.9462       0       0       0       0       0       0     0       0       0       0  
XBB_LI51 XBB_LI51     1 0 116.21 -.00001 .476491       0       0       0       0       0       0     0       0       0       0  
XBR_SL51 XBR_SL51     1 0 115.35       0 .119437       0       0       0       0       0       0     0       0       0       0  
XPR_ME21 XPR_ME21     1 0 243.03 5.42404 -1.5855       0       0       0       0       0       0     0       0       0       0  
XTR_PL21 XTR_PL21     1 0 245.33 42.9231 -2.1448       0       0       0       0       0       0     0       0       0       0  
XUG_ER11 XUG_ER11     1 0  419.6 -51.602 33.8645       0       0       0       0       0       0     0       0       0       0  
XTR_KO51 XTR_KO51     1 0 118.92       0 .341619       0       0       0       0       0       0     0       0       0       0  
XVR_LJ51 XVR_LJ51     1 0 117.66       0  .13809       0       0       0       0       0       0     0       0       0       0  
XMO_KO11 XMO_KO11     1 0  422.3 239.892 76.9325       0       0       0       0       0       0     0       0       0       0  
XOR_ZU51 XOR_ZU51     1 0 114.86       0 .171062       0       0       0       0       0       0     0       0       0       0  
XGR_IM51 XGR_IM51     1 0 116.96 -.00001 .400334       0       0       0       0       0       0     0       0       0       0  
XCA_OP51 XCA_OP51     1 0  117.4 -.00001 .412457       0       0       0       0       0       0     0       0       0       0  
XNE_ST51 XNE_ST51     1 0  118.2   -1.06   -7.97       0       0       0       0       0       0     0       0       0       0  
XNE_OP51 XNE_OP51     1 0 117.69   -0.56    7.78       0       0       0       0       0       0     0       0       0       0  
XKV_GR51 XKV_GR51     1 0 115.24       0 .225164       0       0       0       0       0       0     0       0       0       0  
XMO_ZA21 XMO_ZA21     1 0 241.85 76.4657 26.2839       0       0       0       0       0       0     0       0       0       0  
XTU_DA21 XTU_DA21     1 0 240.92 40.0449 37.1976       0       0       0       0       0       0     0       0       0       0  
XGR_DA21 XGR_DA21     1 0 240.54  -3.381 12.6529       0       0       0       0       0       0     0       0       0       0  
XGR_KN51 XGR_KN51     1 0 116.03       0 .228279       0       0       0       0       0       0     0       0       0       0  
XPR_SI21 XPR_SI21     1 0 242.63 -8.3605 8.11242       0       0       0       0       0       0     0       0       0       0  
XTR_LA11 XTR_LA11     1 0 424.09 -239.06 106.639       0       0       0       0       0       0     0       0       0       0  
##L
WBBROD51 WDERVE51 1 0  3.255 10.787   76.694    600             
WBIHA151 WBIHA25  1 0  0.517  1.715   12.314    360             
WBIHA151 WBIHA25  2 0  0.517  1.715   12.314    360             
WBIHA151 WCAZI15  1 0  1.994  6.792   46.281    360             
WBIHA151 WKVAKU5  1 0  4.492 15.436  103.388    648             
WBIHA151 WBKRUP5  1 0  5.952 13.184   84.793    360             
WBJEL15  WBJEL25  1 0  0.774  2.566   18.264    645             
WBJEL35  WBJEL15  1 0  0.472  1.564   11.157    645             
WBJEL45  XBI_LE51 1 1  0.726  2.405   17.107    645             
WTSBJE5  WHJAJ151 1 0  1.195   3.97   28.264    600             
WTSBJE5  WMGRAD5  1 0  1.195   3.97   28.264    600             
WBJEL45  WBJEL15  1 0   1.21   4.01   28.512    645             
WZVORN51 WTUZL551 1 8  2.287  7.579   53.884    645             
WZVORN51 XZV_BI51 1 1  0.411  1.363    9.669    645             
WBLUK151 WBLUK25  1 0  0.806  1.751   11.405    467             
WBLUK151 WBLUK75  1 0  0.847  2.807       20    645             
WBLUK151 WBLUK85  1 0  0.932  3.088   21.983    645             
WBLUK35  WBLUK45  1 0  1.083  3.549   25.207    645             
WBLUK35  WHBOCA5  1 0  4.005 13.273    94.38    645             
WBLUK651 WBLUK151 1 0  2.669  5.796   37.851    468             
WBLUK651 WBLUK151 2 0  1.537  5.093   36.198    648             
WBLUK651 WBLUK45  1 0  0.847  2.807       20    648             
WBLUK651 WPRIJ251 1 0   8.16 17.723   115.62    468             
WBLUK651 WPRIJ551 1 0  2.771  9.183   65.289    648             
WEVPBL5  WHADZI5  1 0  0.697  2.353   16.446    645             
WEVPBL5  WSARA151 1 0  0.156   0.53    3.636    645             
WBLUK611 WTSTAN11 1 0  2.065 24.001  306.787    960             
WHBOCA5  WHJAJ151 1 0  2.795  9.263   65.868    630             
WHBOCA5  WMGRAD5  1 0  1.863  6.175   43.884    645             
WPETRO5  WDRVAR5  1 0  2.379   8.17   54.711    648             
WBRCK15  WBRCK251 1 0  0.605  2.005   14.298    645             
WBRCK15  WDOBO35  1 0   7.78 25.784  183.388    645             
WBRCK15  WORASJ5  1 0  2.541  8.421   59.917    450             
WBRCK15  WSAMAC5  1 0  6.163 13.386   87.355    470             
WBRCK15  WSR-IK5  1 0  4.726 12.352   84.132    470             
WBRCK251 WBJEL35  1 0  4.489 14.877  105.785    470             
WBREZA5  WSARA451 1 0  2.965 10.071   69.835    648             
WBUGOJ5  WDVAKU5  1 0  1.566  3.661   23.141    360             
WBUGOJ5  WKUPRE5  1 0  1.924  6.375   45.372    630             
WBUGOJ5  WNTRAV5  1 0  3.545 12.274   80.826    645             
WBUGOJ5  WGVAKU5  1 0  2.307  7.986   52.645    330             
WBUSOV5  WVITEZ5  1 0  1.274  4.412   29.008    645             
WBUZIM5  WBKRUP5  1 0  2.595  8.838   60.248    642             
WCAPLJ5  WLJUBU51 1 0  2.269  7.578   51.405    630             
WCAPLJ5  WSTOLA5  1 0  5.793 15.435  105.537    360             
WCAPLJ5  XCA_OP51 1 1  2.277  4.878       30    480             
WCAZI15  WCAZI25  1 0  1.166  4.035   26.612    645             
WCAZI15  WKLADU5  1 0  3.134 10.677   72.893    360             
WCELIN5  WBLUK75  1 0  0.847  2.807       20    645             
WCELUL5  WPRIJ15  1 0  0.145  0.481    3.388    645             
WCITLU5  WCITL25  1 0  0.635  2.058   14.132    630             
WDOBRI5  WVISOK5  1 0  0.996  3.238   21.074    660             
WDERVE51 WDOBO35  1 0  3.388 11.228   79.835    645             
WDERVE51 WPRNJ15  1 0  3.473 11.509   81.818    648             
WDERVE51 WSRBAC5  1 0  4.586 15.198  108.099    645             
WDJURD5  WKLADA5  1 0  2.546  8.673   59.174    600             
WDOBO15  WDOBO25  1 0  0.653  2.165   15.372    600             
WDOBO15  WMAGLA5  1 0  2.462  8.441   56.777    645             
WDOBO15  WTESLI5  1 0  3.122 10.346   73.554    645             
WDOBO25  WDOBO35  1 0  1.537  5.093   36.198    600             
WDUBIC5  WPRIJ35  1 0  3.098 10.266   72.975    645             
WEVPLP5  WGRAHO5  1 0      3   10.4   68.512    648             
WEVPLP5  WDRVAR5  1 0   1.63   5.66   37.273    648             
WEVPKO5  WKONJI5  1 0  0.624   2.13   14.463    642             
WFOCA 5  WGRZD151 1 0  3.485 11.549   82.149    360             
WSAR1011 WSAR1012 1 2      0      0        0   1920             
WTGACK11 WMOST411 1 0  2.208 22.416  246.759   1920             
WTGACK11 WTREBI11 1 0  2.096 21.184  233.303   1920             
WGACKO51 WBILEC5  1 0    4.9 16.241  115.455    648             
WGLINI5  WZVORN51 1 0  0.496  1.644   11.653    360             
WGLINI5  WZVORN51 2 0  0.508  1.684   11.983    360             
WGORA25  WGRZD151 1 0  0.666  2.205   15.702    648             
WGORA25  WHRDUB5  1 0  1.073  3.553   25.207    645             
WHGRAB2  WRPJAB21 1 0   0.73   3.81   24.793    790             
WGRACA5  WLUKA151 1 0      3 10.239   69.752    645             
WGRADA2  XGR_DA21 1 1  1.692  8.838   57.562    840             
WGRADA51 WMODRI5  1 0  1.392  4.612    32.81    645             
WGRDS15  WTOPOL5  1 0  1.198   3.97   28.264    645             
WGRUDE5  WHMLIN5  1 0  1.226  4.245   27.934    360             
WGRUDE5  XGR_IM51 1 1  1.765  4.494   29.339    480             
WHCAPL2  WMOST421 1 0   1.41  10.95  123.678   1440             
WHCAPL2  WMOST421 2 0   1.43  11.13  125.434   1440             
WHJABL51 WKONJI5  1 0  2.102  7.169   48.843    642             
WHJABL51 WWPODV5  1 0  8.378 19.417  128.901    450             
WHJABL51 WPRATA5  1 0  5.109 16.986  122.231    582             
WHJABL51 WSARA151 1 0  6.693 22.251  160.083    645             
WHJABL51 WJABLA5  1 0  0.048  0.167    0.909    360             
WHJAJ151 WJAJC15  1 0  1.145  3.474   23.471    436             
WHMOST51 WMOST151 1 0  0.178    0.6    4.132    642             
WHMOST51 WMOST151 2 0  0.254  0.842     5.95    642             
WHTREB2  WTREBI21 1 0   1.31   7.15   42.665    786             
WHVSGR11 WVISEG11 1 0  0.128  1.312   15.249    960             
WHRAMA21 WRPJAB21 1 0   1.05   5.45   35.413    840             
WHRAMA21 WRPJAB21 2 0   1.05   5.45   35.413    840             
WILIJA5  WSARA151 1 0  1.704  5.813   39.669    645             
WJAJC251 WDVAKU5  1 0  5.491 12.016   75.207    360             
WJAJC251 WHJAJ151 1 0  1.049  3.707   24.298    509             
WJAJC251 WTRAV25  1 0   4.26 14.541   99.174    330             
WJAJC251 WJAJC15  1 0  0.085  0.281    1.983    645             
WKVAKU5  WPETRO5  1 0  3.244 11.144   74.628    648             
WKVARO5  WCELIN5  1 0  1.694  5.614   39.917    645             
WKVARO5  WUKRIN5  1 0  2.904  9.624    68.43    645             
WTKAK721 WRPKAK21 1 0    0.4   2.69   23.347    840             
WTKAK721 WZENI221 1 0    1.3   7.36   53.595    840             
WKLJUC5  WPETRO5  1 0  5.199 17.869  119.669    321             
WKLJUC5  WSMOST5  1 0  3.482 11.864   80.909    321             
WLAKTA5  WBLUK85  1 0  0.932  3.088   21.983    645             
WLAKTA5  WLAKT25  1 0   0.44  1.459   10.331    648             
WLIVNO51 WTGRAD5  1 0  3.267 10.827   77.025    642             
WLIVNO51 XBB_LI51 1 1    1.5  4.972   35.372    642             
WLOPAR5  WTUZL35  1 0  3.015  5.783   48.843    470             
WLJUBU51 WCITL25  1 0  1.039  3.304   22.562    630             
WLUKA151 WSR-IK5  1 0  3.519  7.722   50.496    470             
WMAGLA5  WTESAN5  1 0  1.417  4.871   32.562    330             
WMAGLA5  WZAVID5  1 0  1.838  6.264   42.727    645             
WMGRAD5  WSIPOV5  1 0  3.146 10.427   74.132    378             
WMOST151 WMOST65  1 0  0.826  1.793   11.736    468             
WMOST251 WMOST151 1 0   0.84  2.868   19.504    642             
WMOST451 WCITLU5  1 0  1.416  4.754   31.488    642             
WMOST451 WHMBLA5  1 0  0.242  0.802    5.702    642             
WMOST451 WMOST151 1 0  1.405  4.787   32.645    642             
WMOST451 WSBRIJ5  1 0  2.714   7.15    47.19    642             
WMOST55  WHMBLA5  1 8  0.182  0.601    4.298    630             
WMOST55  WMOST75  1 0  0.647  1.421    9.256    468             
WMOST65  WMOST75  1 0   0.56  1.509   10.331    468             
WMODRI5  WODZAK5  1 0  1.344  2.919   19.091    470             
WMOST321 WEALMO2  1 0   0.07   0.57    6.446   1440             
WMOST321 WMOST421 1 0   0.28   1.47    9.587    840             
WMOST321 WMOST421 2 0   0.15   1.14   12.872   1440             
WMOST411 XMO_KO11 1 1  1.752 17.712  196.191   1920             
WMOST421 WEALMO2  1 8   0.23   1.75   19.669   1440             
WMOST421 XMO_ZA21 1 1   3.79 19.796  129.773    840             
WNEVES5  WMOST251 1 0  3.231 10.707   76.116    642             
WPALE 5  WGRZD151 1 0  8.621 18.723  122.149    642             
WPOSUS5  WHMLIN5  1 0  2.524  8.739   57.521    360             
WPRATA5  WSARA151 1 8  1.584  5.265   37.851    645             
WPRATA5  WSAR145  1 0  1.385  4.361  974.628    582             
WPRIJ251 WBKRUP5  1 0  9.504 20.642  134.711    360             
WPRIJ251 WNGRAD5  1 0   3.92 12.992   92.397    648             
WPRIJ251 WPRIJ15  1 0  0.296  1.613    9.587    648             
WPRIJ251 WPRIJ35  1 0  1.016  3.368   23.967    648             
WPRIJ251 WPRIJ551 1 0  1.984  6.576   46.777    648             
WPRIJ251 WSMOST5  1 0  4.109  8.924   58.264    360             
WPRIJ221 WBIHA12  1 0  5.571 29.069  189.587    375             
WPRIJ221 WJAJC22  1 0  7.967 41.634  272.727    840             
WPRIJ221 WRPKAK21 1 0 10.324 54.334  633.533    840             
WPRIJ221 XPR_ME21 1 1  2.526 13.182   85.909    840             
WPRIJ221 XPR_SI21 1 1  3.233  16.85  103.141    840             
WPRNJ15  WUKRIN5  1 0  1.972  6.536   46.446    648             
WROGAT5  WSOKOL5  1 0  3.122 10.346   73.554    645             
WRPJAB21 WJAJC22  1 0   7.42  38.76  253.533    840             
WRPJAB21 WMOST321 1 0   3.71  19.34  126.219    840             
WRPJAB21 WRPKAK21 1 0   4.86  25.37  165.806    840             
WRPKAK21 WTKAK52  1 0   0.55   2.89   18.781    390             
WSARA151 WSAR185  1 0  0.803  2.552   17.355    582             
WSARA151 WVISOK5  1 0  3.071 10.546   70.992    645             
WSARA25  WSARA451 1 0  0.565  1.923   13.141    648             
WSARA25  WSARA55  1 0  0.103   0.31  107.107    588             
WSARA25  WSARA75  1 0  0.217  0.737    5.124    645             
WSARA55  WSAR115  1 0  0.094  0.282   97.355    588             
WSARA75  WSAR145  1 0  0.108  0.324  111.984    582             
WSAR1051 WKISEL5  1 0  2.522  8.745   57.521    396             
WSAR1051 WSARA151 1 0  1.045    3.6    24.05    645             
WSAR1051 WSARA25  1 8  1.021  3.519   23.471    645             
WSAR1051 WSARA451 1 0    0.6  2.045   13.967    645             
WSAR1051 WSARA55  1 0  1.476  5.038   34.298    648             
WSAR1051 WSARA75  1 0   0.78  2.589   18.595    645             
WSAR1051 WSARA75  2 8   0.78  2.589   18.595    645             
WSAR1051 WSARA85  1 0  0.661  2.191   15.785    396             
WSAR1051 WSARA85  2 0  0.661  2.191   15.785    396             
WSAR115  WSAR135  1 0   0.08   0.24    82.81    582             
WSAR145  WSAR155  1 0  0.324  1.076    7.769    438             
WSAR2051 WSARA151 1 0  1.867  5.926   40.413    541             
WSAR2051 WSAR135  1 8  0.847  2.172   14.711    470             
WSAR2051 WSAR135  2 8  0.847  2.172   14.711    470             
WSAR2051 WSAR145  1 0  0.436  1.444  102.645    480             
WSAR2051 WSAR155  1 0  0.424  1.403       10    648             
WSAR2051 WSAR185  1 0  1.029  3.408   24.215    582             
WHSALA21 WMOST321 1 0   2.26  11.77   76.591    840             
WHSALA21 WRPKAK21 1 0   7.06  36.91  241.302    840             
WSAMAC5  WODZAK5  1 0  2.304  5.004   32.645    470             
WSAR1011 WMOST411 1 0  3.056 30.896  341.503   1920             
WSAR1011 WTUZL411 1 0  2.768 28.016  309.148   1920             
WSAR2011 WSAR1011 1 0   0.96  9.744  107.569   1152             
WSAR202  XSA_PI21 1 1  1.786 17.997  150.455    800             
WSBRIJ5  WGRUDE5  1 0  2.976  6.882   43.141    642             
WSOKOL5  WSARA451 1 0   4.61 15.278  108.678    648             
WSRBAC5  WTOPOL5  1 0  2.105  6.977   49.587    645             
WTSTAN51 WTESLI5  1 0 2.5483 8.4451    60.02    645             
WTSTAN51 WUKRIN5  1 0   2.42   8.02   57.025    645             
WTKAKA51 WBREZA5  1 0  2.125  7.218       50    645             
WTKAKA51 WCEMEN5  1 0  0.517  1.762   11.983    645             
WTKAKA51 WDOBRI5  1 0  0.636   2.17   14.793    645             
WTKAKA51 WILIJA5  1 0   2.34  7.982   54.545    645             
WTKAKA51 WZENI151 1 0  3.573 12.029   78.843    509             
WTTUZL21 WGRADA2  1 0   3.83  19.85  131.322    840             
WTTUZL21 WTUZL421 1 0   0.44   2.26   14.731    840             
WTTUZL21 WTUZL421 2 0   0.39   2.05   13.347    840             
WTTUZL21 XTU_DA21 1 1  3.533 18.486  120.723    840             
WTTUZL51 WHAK  51 1 0  0.083  0.287    1.983    645             
WTTUZL51 WLUKA151 1 0  1.943  6.655   45.124    645             
WTTUZL51 WLUKA151 2 0   1.55  5.296   35.868    645             
WTTUZL51 WTUZLC51 1 0  1.523  5.199   35.455    645             
WTGRAD5  WKUPRE5  1 0  3.879 13.203   93.636    630             
WTOPOL5  WLAKT25  1 0  1.762  5.838   41.488    645             
WTRAV15  WTRAV25  1 0  0.886  2.041    12.81    467             
WTRAV15  WZENI151 1 0  2.173   7.41   50.496    645             
WTREBI11 XTR_LA11 1 1 1.5235 14.674 157.0431   1920             
WTREBI21 WHEDUB2  1 0    0.8   4.32   43.988    786             
WTREBI21 WMOST321 1 0   6.74  35.24  230.558    840             
WTREBI21 WMOST321 2 0   6.77  35.34  231.074    840             
WTREBI21 XTR_PE21 1 1   2.39 13.028   77.727    840             
WTREBI21 XTR_PL21 1 1    0.4   2.16   22.169    840             
WTREBI5  WTREB15  1 0  1.536  3.336   21.736    468             
WTREBI5  XTR_HN51 1 1  2.957  6.422   41.901    468             
WTREBI5  XTR_KO51 1 1  1.709  3.711   24.215    468             
WJABLA5  WRAMA 5  1 0  2.858  9.543   67.851    645             
WTREB15  WBILEC5  1 0  4.512    9.8   63.967    468             
WTUZL421 WRPKAK21 1 0  5.702 29.805  194.959    840             
WTUZL421 WZENI221 1 0  5.334 27.835  181.302    840             
WTUZL451 WBANOV5  1 0  2.032   7.03   46.281    390             
WTUZL451 WDJURD5  1 0  1.285  4.378   29.835    600             
WTUZL451 WHAK  51 1 0  0.626  2.163   14.215    645             
WTUZL451 WTUZLC51 1 0  1.081  3.683   25.124    645             
WTUZL451 WTUZL551 1 0  1.117  3.807    25.95    640             
WVISEG11 WTUZL411 1 0  3.856   38.4  447.292    960             
WVISEG2  XVI_VA21 1 1  0.724  3.946   23.533    840             
WTUZLC51 WTUZL35  1 0  0.714  2.366    16.86    645             
WTUZL551 WTUZLC51 1 0    0.9  3.059   21.074    645             
WTUZL411 WTSTAN11 1 0  1.609  18.56  237.237    960             
WTUGLJ11 WTUZL411 1 0  1.328 13.344  147.403   1920             
WTUGLJ11 XUG_ER11 1 1  1.568 15.832  174.986   1920             
WTUGLJ11 XUG_SM11 1 1  1.153 12.594  129.591   1920             
WTUGLJ51 WZVORN51 1 0  5.542 18.366  130.579    645             
WTUGLJ51 WBJEL25  1 0  2.275  7.539   53.636    600             
WTUGLJ51 WLOPAR5  1 0   1.96  6.496   46.198    468             
WVARES5  WVISOK5  1 0  2.375  8.105   55.289    315             
WVISEG51 WROGAT5  1 0  2.771  9.183   65.289    648             
WVISEG51 WHRDUB5  1 0  2.147  7.106   50.496    648             
WVISOK5  WFOJNI5  1 0  2.662  8.822   62.727    645             
WVITEZ5  WNTRAV5  1 0  0.661  2.291   15.041    645             
WKLADU5  WVRNOG5  1 0  1.514  5.155   35.124    360             
WVLASE5  WKLADA5  1 0  2.674  8.862 63.05799    600             
WVRNOG5  WBUZIM5  1 0  1.333   4.54   30.992    642             
WWJELO5  WRAMA 5  1 0  4.677 15.916  112.066    645             
WWJELO5  WTGRAD5  1 0  0.613  2.086   13.884    642             
WWGBRS5  WPOSUS5  1 0  2.618   8.91   62.479    642             
WWGBRS5  WTGRAD5  1 0   1.38  4.698   32.975    642             
WZAVID5  WZENI151 1 0  4.784  16.34  111.322    645             
WZENI251 WBUSOV5  1 0  1.333  4.541   30.992    645             
WZENI251 WCEMEN5  1 0   1.92   6.55   44.711    645             
WZENI251 WZENI151 1 0  1.165  3.969   27.107    440             
WZENI251 WZENI35  1 0  0.409  1.356    9.752    396             
WZENI251 WZENI35  2 0  0.409  1.356    9.752    396             
WZENI251 WJUG  5  1 0  1.356  4.626   31.488    532             
WZENI251 WSJEVE5  1 0  0.972  3.315   22.562    528             
WJUG  5  WZENI45  1 0  0.096  0.328    2.231    532             
WSJEVE5  WZENI151 1 0   0.42  1.433    9.752    528             
WSJEVE5  WZENI45  1 0   0.42  1.433    9.752    528             
XBR_SL51 WBBROD51 1 1  0.643  1.397        9    500             
XGR_KN51 WGRAHO5  1 1    1.1   2.53       17    480             
XKV_GR51 WKVAKU5  1 1  0.726  2.406       17    645             
XNE_OP51 WNEUM 5  1 1  2.285  4.962       18    468             
XNE_ST51 WNEUM 5  1 1  1.258  2.731   17.851    468             
XOR_ZU51 WORASJ5  1 1  0.893  1.939       13    360             
XVR_LJ51 WLJUBU51 1 1  1.545  1.656       10    480             
WBILEC5  XBI_NI51 1 1  4.666 13.124   84.298    438             
WBLUK151 WBL5TT5  1 0  1.452  4.812   34.215    645             
WBLUK55  WBL5TT5  1 0  0.218  0.722    5.124    645             
WBLUK651 WKTDUB5  1 0  6.171 20.451  145.455    645             
WBLUK651 WPRITT5  1 0  4.586 15.198  108.099    645             
WHBOCA5  WBL5TT5  1 0  3.049 10.105   71.818    645             
WBRCK251 WGRDTT5  1 0  5.203 17.243  122.645    645             
WDERVE51 WGRDTT5  1 0  4.731 15.679  111.488    645             
WDUBIC5  WKTDUB5  1 0  2.515  5.463    35.62    467             
WGRADA51 WGRDTT5  1 0  0.508  1.684   11.983    645             
WPLJTT5  WZVORN51 1 0  2.686  8.902   63.306    645             
WPLJTT5  WVLASE5  1 0  1.827  6.055   43.058    645             
WPALE 5  WSA5TT5  1 0  3.264  7.089   46.281    467             
WPRIJ15  WPRITT5  1 0  0.787  2.607   18.512    645             
WSARA55  WSA5TT5  1 0  0.547  1.188    7.769    467             
WSR-CA5  WPLJTT5  1 0  1.827  6.055   43.058    450             
WBBROD51 WBBROD52 1 7      0      0        0    467             
WBIHA151 WBIHA152 1 7      0      0        0    467             
WZVORN51 WZVORN52 1 7      0      0        0    645             
WBLUK151 WBLUK152 1 7      0      0        0    467             
WBLUK651 WBLUK652 1 7      0      0        0    467             
WBLUK611 WBLUK612 1 7      0      0        0    960             
WBRCK251 WBRCK252 1 7      0      0        0    467             
WDERVE51 WDERVE52 1 7      0      0        0    645             
WTGACK11 WTGACK12 1 7      0      0        0   1920             
WGACKO51 WGACKO52 1 7      0      0        0    645             
WGRZD151 WGRZD152 1 7      0      0        0    467             
WGRADA51 WGRADA52 1 7      0      0        0    645             
WHAK  51 WHAK  52 1 7      0      0        0    645             
WHJABL51 WHJABL52 1 7      0      0        0    457             
WHJAJ151 WHJAJ152 1 7      0      0        0    436             
WHMOST51 WHMOST52 1 7      0      0        0    645             
WHVSGR11 WHVSGR12 1 7      0      0        0   1920             
WHRAMA21 WHRAMA22 1 7      0      0        0    840             
WJAJC251 WJAJC252 1 7      0      0        0    409             
WTKAK721 WTKAK722 1 7      0      0        0    840             
WLIVNO51 WLIVNO52 1 7      0      0        0    645             
WLJUBU51 WLJUBU52 1 7      0      0        0    467             
WLUKA151 WLUKA152 1 7      0      0        0    467             
WMOST151 WMOST152 1 7      0      0        0    467             
WMOST251 WMOST252 1 7      0      0        0    457             
WMOST451 WMOST452 1 7      0      0        0    378             
WMOST321 WMOST322 1 7      0      0        0    840             
WMOST411 WMOST412 1 7      0      0        0   1920             
WMOST421 WMOST422 1 7      0      0        0   1920             
WPRIJ251 WPRIJ252 1 7      0      0        0    467             
WPRIJ551 WPRIJ552 1 7      0      0        0    645             
WPRIJ221 WPRIJ222 1 7      0      0        0    840             
WRPJAB21 WRPJAB22 1 7      0      0        0    840             
WRPKAK21 WRPKAK22 1 7      0      0        0    840             
WSARA151 WSARA152 1 7      0      0        0    467             
WSARA451 WSARA452 1 7      0      0        0    645             
WSAR2051 WSAR2052 1 7      0      0        0    467             
WHSALA21 WHSALA22 1 7      0      0        0    840             
WSAR1051 WSAR1052 1 7      0      0        0    645             
WSAR2011 WSAR2012 1 7      0      0        0   1152             
...